  Page 1                                    Mon Aug 10 13:53:40 2009

  ******************************************************************
  *                           E P A N E T                          *
  *                   Hydraulic and Water Quality                  *
  *                   Analysis for Pipe Networks                   *
  *                         Version 2.00.12                        *
  ******************************************************************
  
  Analysis begun Mon Aug 10 13:53:40 2009

  Processing MSX input file Batch-NH2CL/batch-nh2cl.msx
  
  
Page 1                                               EPANET-MSX 1.1
  
  ******************************************************************
  *                      E P A N E T  -  M S X                     *
  *                   Multi-Species Water Quality                  *
  *                   Analysis for Pipe  Networks                  *
  *                           Version 1.1                          *
  ******************************************************************
  
  Batch Chloramine Decay Example

  
  <<< Node 1 >>>
  
  Time     chloramine
  hr:min     MMOLES/L
  -------  ----------
     0:00      0.0000
     1:00      0.0497
     2:00      0.0495
     3:00      0.0494
     4:00      0.0492
     5:00      0.0491
     6:00      0.0490
     7:00      0.0489
     8:00      0.0487
     9:00      0.0486
    10:00      0.0485
    11:00      0.0484
    12:00      0.0483
    13:00      0.0482
    14:00      0.0481
    15:00      0.0480
    16:00      0.0479
    17:00      0.0478
    18:00      0.0477
    19:00      0.0476
    20:00      0.0476
    21:00      0.0475
    22:00      0.0474
    23:00      0.0473
    24:00      0.0472
    25:00      0.0471
    26:00      0.0470
    27:00      0.0470
    28:00      0.0469
    29:00      0.0468
    30:00      0.0467
    31:00      0.0467
    32:00      0.0466
    33:00      0.0465
    34:00      0.0464
    35:00      0.0464
    36:00      0.0463
    37:00      0.0462
    38:00      0.0461
    39:00      0.0461
    40:00      0.0460
    41:00      0.0459
    42:00      0.0459
    43:00      0.0458
    44:00      0.0457
    45:00      0.0456
    46:00      0.0456
    47:00      0.0455
    48:00      0.0454
    49:00      0.0454
    50:00      0.0453
    51:00      0.0452
    52:00      0.0452
    53:00      0.0451
    54:00      0.0450
    55:00      0.0450
    56:00      0.0449
    57:00      0.0449
    58:00      0.0448
    59:00      0.0447
    60:00      0.0447
    61:00      0.0446
    62:00      0.0445
    63:00      0.0445
    64:00      0.0444
    65:00      0.0444
    66:00      0.0443
    67:00      0.0442
    68:00      0.0442
    69:00      0.0441
    70:00      0.0441
    71:00      0.0440
    72:00      0.0439
    73:00      0.0439
    74:00      0.0438
    75:00      0.0438
    76:00      0.0437
    77:00      0.0437
    78:00      0.0436
    79:00      0.0435
    80:00      0.0435
    81:00      0.0434
    82:00      0.0434
    83:00      0.0433
    84:00      0.0433
    85:00      0.0432
    86:00      0.0432
    87:00      0.0431
    88:00      0.0430
    89:00      0.0430
    90:00      0.0429
    91:00      0.0429
    92:00      0.0428
    93:00      0.0428
    94:00      0.0427
    95:00      0.0427
    96:00      0.0426
    97:00      0.0426
    98:00      0.0425
    99:00      0.0425
   100:00      0.0424
   101:00      0.0423
   102:00      0.0423
   103:00      0.0422
   104:00      0.0422
   105:00      0.0421
   106:00      0.0421
   107:00      0.0420
   108:00      0.0420
   109:00      0.0419
   110:00      0.0419
   111:00      0.0418
   112:00      0.0418
   113:00      0.0417
   114:00      0.0417
   115:00      0.0416
   116:00      0.0416
   117:00      0.0415
   118:00      0.0415
   119:00      0.0414
   120:00      0.0414
   121:00      0.0413
   122:00      0.0413
   123:00      0.0412
   124:00      0.0412
   125:00      0.0411
   126:00      0.0411
   127:00      0.0410
   128:00      0.0410
   129:00      0.0409
   130:00      0.0409
   131:00      0.0409
   132:00      0.0408
   133:00      0.0408
   134:00      0.0407
   135:00      0.0407
   136:00      0.0406
   137:00      0.0406
   138:00      0.0405
   139:00      0.0405
   140:00      0.0404
   141:00      0.0404
   142:00      0.0403
   143:00      0.0403
   144:00      0.0403
   145:00      0.0402
   146:00      0.0402
   147:00      0.0401
   148:00      0.0401
   149:00      0.0400
   150:00      0.0400
   151:00      0.0399
   152:00      0.0399
   153:00      0.0398
   154:00      0.0398
   155:00      0.0398
   156:00      0.0397
   157:00      0.0397
   158:00      0.0396
   159:00      0.0396
   160:00      0.0395
   161:00      0.0395
   162:00      0.0394
   163:00      0.0394
   164:00      0.0394
   165:00      0.0393
   166:00      0.0393
   167:00      0.0392
   168:00      0.0392
  
  Analysis ended Mon Aug 10 13:53:48 2009
