  Page 1                                    Mon Aug 10 13:53:35 2009

  ******************************************************************
  *                           E P A N E T                          *
  *                   Hydraulic and Water Quality                  *
  *                   Analysis for Pipe Networks                   *
  *                         Version 2.00.12                        *
  ******************************************************************
  
  EPANET-MSX Example Network 
   
      Input Data File ................... As5Adsorb/example.inp
      Number of Junctions................ 4
      Number of Reservoirs............... 1
      Number of Tanks ................... 0
      Number of Pipes ................... 5
      Number of Pumps ................... 0
      Number of Valves .................. 0
      Headloss Formula .................. Hazen-Williams
      Hydraulic Timestep ................ 1.00 hrs
      Hydraulic Accuracy ................ 0.001000
      Status Check Frequency ............ 2
      Maximum Trials Checked ............ 10
      Damping Limit Threshold ........... 0.000000
      Maximum Trials .................... 200
      Quality Analysis .................. None
      Specific Gravity .................. 1.00
      Relative Kinematic Viscosity ...... 1.00
      Relative Chemical Diffusivity ..... 1.00
      Demand Multiplier ................. 1.00
      Total Duration .................... 48.00 hrs
      Reporting Criteria:
         No Nodes
         No Links
   
  Analysis begun Mon Aug 10 13:53:36 2009

  Processing MSX input file As5Adsorb/example.msx
  
  
Page 1                                               EPANET-MSX 1.1
  
  ******************************************************************
  *                      E P A N E T  -  M S X                     *
  *                   Multi-Species Water Quality                  *
  *                   Analysis for Pipe  Networks                  *
  *                           Version 1.1                          *
  ******************************************************************
  
  Arsenic Oxidation/Adsorption Example

  
  <<< Node C >>>
  
  Time            AS5       AStot       NH2CL
  hr:min         UG/L        UG/L        MG/L
  -------  ----------  ----------  ----------
     0:00        0.00        0.00        0.00
     2:00        0.00        0.00        0.00
     4:00        0.00        0.00        0.00
     6:00        0.00        0.00        0.00
     8:00        0.00        0.00        1.10
    10:00        9.17        9.17        1.10
    12:00        9.17        9.17        1.10
    14:00        9.17        9.17        1.10
    16:00        9.17        9.17        1.10
    18:00        9.17        9.17        1.10
    20:00        9.17        9.17        1.10
    22:00        9.17        9.17        1.10
    24:00        9.17        9.17        1.10
    26:00        9.17        9.17        1.10
    28:00        9.17        9.17        1.10
    30:00        9.17        9.17        1.10
    32:00        9.17        9.17        1.10
    34:00        9.17        9.17        1.11
    36:00        9.17        9.17        1.11
    38:00       10.03       10.03        1.11
    40:00       10.03       10.03        1.11
    42:00       10.03       10.03        1.11
    44:00       10.03       10.03        1.11
    46:00       10.03       10.03        1.11
    48:00       10.03       10.03        1.11
  
  <<< Node D >>>
  
  Time            AS5       AStot       NH2CL
  hr:min         UG/L        UG/L        MG/L
  -------  ----------  ----------  ----------
     0:00        0.00        0.00        0.00
     2:00        0.00        0.00        0.00
     4:00        0.00        0.00        0.00
     6:00        0.00        0.00        0.00
     8:00        0.00        0.00        0.00
    10:00        0.00        0.00        0.00
    12:00        0.00        0.00        0.00
    14:00        0.00        0.00        0.00
    16:00        0.00        0.00        0.00
    18:00        0.00        0.00        0.00
    20:00        0.00        0.00        0.00
    22:00        0.00        0.00        0.00
    24:00        0.00        0.00        0.24
    26:00        0.00        0.00        0.24
    28:00        9.17        9.17        0.24
    30:00        9.17        9.17        0.24
    32:00        9.17        9.17        0.24
    34:00        9.17        9.17        0.24
    36:00        9.17        9.17        0.24
    38:00        9.17        9.17        0.24
    40:00        9.17        9.17        0.24
    42:00        9.17        9.17        0.24
    44:00        9.17        9.17        0.24
    46:00        9.17        9.17        0.24
    48:00        9.17        9.17        0.24
  
  <<< Link 5 >>>
  
  Time            AS5       AStot        AS5s       NH2CL
  hr:min         UG/L        UG/L       UG/M2        MG/L
  -------  ----------  ----------  ----------  ----------
     0:00        0.00        0.00        0.00        0.00
     2:00        0.00        0.00        0.00        0.00
     4:00        0.00        0.00        0.00        0.00
     6:00        0.00        0.00        0.00        0.00
     8:00        0.00        0.00        0.00        0.05
    10:00        0.85        0.85        4.51        0.17
    12:00        1.86        1.86        9.88        0.27
    14:00        2.87        2.87       15.27        0.35
    16:00        3.87        3.87       20.64        0.42
    18:00        4.88        4.88       26.02        0.47
    20:00        5.89        5.89       31.39        0.52
    22:00        6.89        6.89       36.75        0.55
    24:00        7.90        7.90       42.12        0.56
    26:00        8.91        8.91       47.50        0.56
    28:00        9.17        9.17       48.93        0.56
    30:00        9.17        9.17       48.93        0.56
    32:00        9.17        9.17       48.93        0.56
    34:00        9.17        9.17       48.93        0.56
    36:00        9.17        9.17       48.93        0.57
    38:00        9.19        9.19       48.93        0.57
    40:00        9.30        9.30       48.95        0.57
    42:00        9.41        9.41       48.96        0.57
    44:00        9.52        9.52       48.97        0.57
    46:00        9.64        9.64       48.98        0.57
    48:00        9.75        9.75       48.99        0.57
  
  Analysis ended Mon Aug 10 13:53:37 2009
