  Page 1                                    Mon Aug 10 14:04:16 2009

  ******************************************************************
  *                           E P A N E T                          *
  *                   Hydraulic and Water Quality                  *
  *                   Analysis for Pipe Networks                   *
  *                         Version 2.00.12                        *
  ******************************************************************
  
  Analysis begun Mon Aug 10 14:04:16 2009

  Processing MSX input file Net3-NH2CL/Net3-NH2CL.msx
  
  
Page 1                                               EPANET-MSX 1.1
  
  ******************************************************************
  *                      E P A N E T  -  M S X                     *
  *                   Multi-Species Water Quality                  *
  *                   Analysis for Pipe  Networks                  *
  *                           Version 1.1                          *
  ******************************************************************
  
  NET3 Chloramine Decay Example

  
  
  
  Average Values          cNH3      cNH2CL
  for Node                MG/L        MG/L
  ----------------  ----------  ----------
  10                    0.0045      2.5613
  15                    0.5263      0.8436
  20                    0.4789      0.9337
  35                    0.3428      1.5122
  40                    0.5450      0.8785
  50                    0.6199      0.4430
  60                    0.0056      2.5574
  601                   0.0475      2.4300
  61                    0.0139      2.5322
  101                   0.2196      1.8923
  103                   0.2667      1.7472
  105                   0.2310      1.8579
  107                   0.2803      1.7083
  109                   0.2886      1.6892
  111                   0.2688      1.7430
  113                   0.3112      1.6145
  115                   0.2709      1.7364
  117                   0.2429      1.8216
  119                   0.2296      1.8613
  120                   0.2437      1.8189
  121                   0.2200      1.8906
  123                   0.1908      1.9947
  125                   0.3783      1.3093
  127                   0.4643      0.9896
  129                   0.5096      0.8446
  131                   0.7324      0.1369
  139                   0.5181      0.8224
  141                   0.5265      0.8133
  143                   0.5110      0.9000
  145                   0.4542      1.1172
  147                   0.3916      1.3666
  149                   0.3755      1.4175
  151                   0.3879      1.3240
  153                   0.4066      1.2372
  157                   0.2398      1.8303
  159                   0.2506      1.7974
  161                   0.2605      1.7675
  163                   0.2652      1.7527
  164                   0.5055      1.0259
  166                   0.7887      0.1632
  167                   0.2825      1.7005
  169                   0.2739      1.7266
  171                   0.2796      1.7091
  173                   0.2838      1.6965
  177                   0.4608      1.1386
  179                   0.4739      1.0973
  181                   0.3402      1.5199
  183                   0.3803      1.3973
  184                   0.3964      1.3515
  185                   0.3922      1.3636
  187                   0.3469      1.5082
  189                   0.3228      1.5794
  191                   0.3327      1.5511
  193                   0.3198      1.5867
  195                   0.2986      1.6518
  197                   0.3329      1.5474
  199                   0.2974      1.6552
  201                   0.3020      1.6415
  203                   0.3059      1.6298
  204                   0.3547      1.4842
  205                   0.4153      1.2976
  206                   0.4287      1.2560
  207                   0.4218      1.2770
  208                   0.4323      1.2453
  209                   0.4394      1.2242
  211                   0.4595      1.1637
  213                   0.4836      1.0913
  215                   0.6110      0.7030
  217                   0.6733      0.5121
  219                   0.7485      0.2823
  225                   0.7491      0.2799
  229                   0.5318      0.9476
  231                   0.7463      0.2907
  237                   0.4944      1.0589
  239                   0.5137      1.0047
  241                   0.5253      0.9696
  243                   0.8391      0.0080
  247                   0.5223      0.9202
  249                   0.5274      0.9590
  251                   0.6095      0.6558
  253                   0.6322      0.4952
  255                   0.6059      0.6016
  257                   0.2630      1.7606
  259                   0.2564      1.7807
  261                   0.2425      1.8229
  263                   0.2407      1.8279
  265                   0.2705      1.7367
  267                   0.3267      1.5674
  269                   0.2954      1.6614
  271                   0.2933      1.6675
  273                   0.3495      1.5003
  275                   0.3774      1.4170
  4                     0.0000      0.0000
  5                     0.0000      0.0000
  1                     0.7727      0.1145
  2                     0.5039      0.0429
  3                     0.6781      0.1574
  
  
  
  Average Values          cNH3      cNH2CL
  for Link                MG/L        MG/L
  ----------------  ----------  ----------
  20                    0.5232      0.7619
  40                    0.6020      0.6920
  50                    0.5914      0.3223
  60                    0.0000      0.0000
  101                   0.2351      1.8612
  103                   0.2374      1.8382
  105                   0.2224      1.8840
  107                   0.2662      1.7484
  109                   0.3128      1.6189
  111                   0.2680      1.7452
  112                   0.2823      1.7021
  113                   0.2994      1.6498
  114                   0.2854      1.6930
  115                   0.2921      1.6769
  116                   0.3213      1.5837
  117                   0.2331      1.8512
  119                   0.2758      1.7218
  120                   0.2450      1.8150
  121                   0.2329      1.8518
  122                   0.2307      1.8578
  123                   0.2221      1.8841
  125                   0.1923      1.9900
  129                   0.3634      1.3676
  131                   0.4032      1.2196
  133                   0.4677      0.9769
  135                   0.4875      0.9151
  137                   0.6440      0.4451
  145                   0.5196      0.8117
  147                   0.5253      0.7954
  149                   0.5138      0.8804
  151                   0.5169      0.8780
  153                   0.4849      0.9992
  155                   0.4194      1.2578
  159                   0.3834      1.3914
  161                   0.3736      1.4146
  163                   0.4303      1.1542
  169                   0.3933      1.2677
  171                   0.3204      1.5556
  173                   0.2323      1.8530
  175                   0.2449      1.8149
  177                   0.2532      1.7895
  179                   0.2605      1.7675
  180                   0.3963      1.3574
  181                   0.6863      0.4727
  183                   0.2705      1.7367
  185                   0.2762      1.7196
  186                   0.3469      1.5082
  187                   0.2752      1.7228
  189                   0.2796      1.7091
  191                   0.2833      1.6979
  193                   0.3402      1.5199
  195                   0.4573      1.1492
  197                   0.4700      1.1105
  199                   0.4053      1.3146
  201                   0.5319      0.9186
  202                   0.3922      1.3636
  203                   0.3841      1.3852
  204                   0.4078      1.3186
  205                   0.3641      1.4544
  207                   0.3355      1.5407
  209                   0.3278      1.5637
  211                   0.2794      1.7098
  213                   0.3523      1.4907
  215                   0.3335      1.5479
  217                   0.3736      1.4255
  219                   0.2974      1.6547
  221                   0.3050      1.6325
  223                   0.3345      1.5435
  225                   0.3055      1.6293
  229                   0.2897      1.6786
  231                   0.2974      1.6552
  233                   0.3020      1.6415
  235                   0.3112      1.6132
  237                   0.4208      1.2804
  238                   0.4221      1.2761
  239                   0.3991      1.3508
  240                   0.4291      1.2548
  241                   0.4342      1.2396
  243                   0.4479      1.1987
  245                   0.4666      1.1430
  247                   0.5488      0.8940
  249                   0.6396      0.6159
  251                   0.7136      0.3877
  257                   0.7141      0.3863
  261                   0.5067      1.0227
  263                   0.6590      0.5575
  269                   0.4718      1.1269
  271                   0.5516      0.8829
  273                   0.5009      1.0404
  275                   0.5191      0.9881
  277                   0.7759      0.2006
  281                   0.5195      0.9506
  283                   0.5209      0.9811
  285                   0.5151      0.9412
  287                   0.5545      0.8094
  289                   0.6157      0.4802
  291                   0.6189      0.5492
  293                   0.6212      0.6030
  295                   0.5710      0.8189
  297                   0.2604      1.7685
  299                   0.2563      1.7809
  301                   0.2500      1.8001
  303                   0.2409      1.8276
  305                   0.2421      1.8239
  307                   0.2389      1.8336
  309                   0.3112      1.6135
  311                   0.3301      1.5572
  313                   0.3031      1.6386
  315                   0.2935      1.6671
  317                   0.3649      1.4541
  319                   0.4267      1.2657
  321                   0.2660      1.7503
  323                   0.3683      1.4417
  325                   0.3018      1.6419
  329                   0.1050      2.2555
  330                   0.0424      2.4456
  333                   0.0475      2.4300
  10                    0.0000      0.0000
  335                   0.0022      2.5680
  
  Analysis ended Mon Aug 10 14:21:53 2009
