  Page 1                                    Thu Sep 19 12:11:54 2013

  ******************************************************************
  *                           E P A N E T                          *
  *                   Hydraulic and Water Quality                  *
  *                   Analysis for Pipe Networks                   *
  *                         Version 2.00.12                        *
  ******************************************************************
  
  Analysis begun Thu Sep 19 12:11:54 2013

  Processing MSX input file temp.msx
  
  
Page 1                                               EPANET-MSX 1.1
  
  ******************************************************************
  *                      E P A N E T  -  M S X                     *
  *                   Multi-Species Water Quality                  *
  *                   Analysis for Pipe  Networks                  *
  *                           Version 1.1                          *
  ******************************************************************
  
  Arsenic Oxidation/Adsorption Example

  
  <<< Node B >>>
  
  Time            AS3         AS5       AStot       NH2CL
  hr:min         UG/L        UG/L        UG/L        MG/L
  -------  ----------  ----------  ----------  ----------
     0:00        0.00        0.00        0.00        0.00
     2:00        0.00        0.00        0.00        0.00
     4:00        0.00        0.00        0.00        0.00
     6:00        0.00        0.00        0.00        1.44
     8:00        0.00       10.03       10.03        1.44
    10:00        0.00       10.03       10.03        1.44
    12:00        0.00       10.03       10.03        1.44
    14:00        0.00       10.03       10.03        1.44
    16:00        0.00       10.03       10.03        1.44
    18:00        0.00       10.03       10.03        1.44
    20:00        0.00       10.03       10.03        1.44
    22:00        0.00       10.03       10.03        1.44
    24:00        0.00       10.03       10.03        1.44
    26:00        0.00       10.03       10.03        1.44
    28:00        0.00       10.03       10.03        1.44
    30:00        0.00       10.03       10.03        1.44
    32:00        0.00       10.03       10.03        1.44
    34:00        0.00       10.03       10.03        1.44
    36:00        0.00       10.03       10.03        1.44
    38:00        0.00       10.03       10.03        1.44
    40:00        0.00       10.03       10.03        1.44
    42:00        0.00       10.03       10.03        1.44
    44:00        0.00       10.03       10.03        1.44
    46:00        0.00       10.03       10.03        1.44
    48:00        0.00       10.03       10.03        1.44
  
  <<< Node C >>>
  
  Time            AS3         AS5       AStot       NH2CL
  hr:min         UG/L        UG/L        UG/L        MG/L
  -------  ----------  ----------  ----------  ----------
     0:00        0.00        0.00        0.00        0.00
     2:00        0.00        0.00        0.00        0.00
     4:00        0.00        0.00        0.00        0.00
     6:00        0.00        0.00        0.00        0.00
     8:00        0.00        0.00        0.00        1.10
    10:00        0.00        9.17        9.17        1.10
    12:00        0.00        9.17        9.17        1.10
    14:00        0.00        9.17        9.17        1.10
    16:00        0.00        9.17        9.17        1.10
    18:00        0.00        9.17        9.17        1.10
    20:00        0.00        9.17        9.17        1.10
    22:00        0.00        9.17        9.17        1.10
    24:00        0.00        9.17        9.17        1.10
    26:00        0.00        9.17        9.17        1.10
    28:00        0.00        9.17        9.17        1.10
    30:00        0.00        9.17        9.17        1.10
    32:00        0.00        9.17        9.17        1.10
    34:00        0.00        9.17        9.17        1.11
    36:00        0.00        9.17        9.17        1.11
    38:00        0.00       10.03       10.03        1.11
    40:00        0.00       10.03       10.03        1.11
    42:00        0.00       10.03       10.03        1.11
    44:00        0.00       10.03       10.03        1.11
    46:00        0.00       10.03       10.03        1.11
    48:00        0.00       10.03       10.03        1.11
  
  <<< Node D >>>
  
  Time            AS3         AS5       AStot       NH2CL
  hr:min         UG/L        UG/L        UG/L        MG/L
  -------  ----------  ----------  ----------  ----------
     0:00        0.00        0.00        0.00        0.00
     2:00        0.00        0.00        0.00        0.00
     4:00        0.00        0.00        0.00        0.00
     6:00        0.00        0.00        0.00        0.00
     8:00        0.00        0.00        0.00        0.00
    10:00        0.00        0.00        0.00        0.00
    12:00        0.00        0.00        0.00        0.00
    14:00        0.00        0.00        0.00        0.00
    16:00        0.00        0.00        0.00        0.00
    18:00        0.00        0.00        0.00        0.00
    20:00        0.00        0.00        0.00        0.00
    22:00        0.00        0.00        0.00        0.00
    24:00        0.00        0.00        0.00        0.24
    26:00        0.00        0.00        0.00        0.24
    28:00        0.00        9.17        9.17        0.24
    30:00        0.00        9.17        9.17        0.24
    32:00        0.00        9.17        9.17        0.24
    34:00        0.00        9.17        9.17        0.24
    36:00        0.00        9.17        9.17        0.24
    38:00        0.00        9.17        9.17        0.24
    40:00        0.00        9.17        9.17        0.24
    42:00        0.00        9.17        9.17        0.24
    44:00        0.00        9.17        9.17        0.24
    46:00        0.00        9.17        9.17        0.24
    48:00        0.00        9.17        9.17        0.24
  
  <<< Node A >>>
  
  Time            AS3         AS5       AStot       NH2CL
  hr:min         UG/L        UG/L        UG/L        MG/L
  -------  ----------  ----------  ----------  ----------
     0:00        0.00        0.00        0.00        0.00
     2:00        0.00        0.00        0.00        0.00
     4:00        0.00       10.03       10.03        2.04
     6:00        0.00       10.03       10.03        2.04
     8:00        0.00       10.03       10.03        2.04
    10:00        0.00       10.03       10.03        2.04
    12:00        0.00       10.03       10.03        2.04
    14:00        0.00       10.03       10.03        2.04
    16:00        0.00       10.03       10.03        2.04
    18:00        0.00       10.03       10.03        2.04
    20:00        0.00       10.03       10.03        2.04
    22:00        0.00       10.03       10.03        2.04
    24:00        0.00       10.03       10.03        2.04
    26:00        0.00       10.03       10.03        2.04
    28:00        0.00       10.03       10.03        2.04
    30:00        0.00       10.03       10.03        2.04
    32:00        0.00       10.03       10.03        2.04
    34:00        0.00       10.03       10.03        2.04
    36:00        0.00       10.03       10.03        2.04
    38:00        0.00       10.03       10.03        2.04
    40:00        0.00       10.03       10.03        2.04
    42:00        0.00       10.03       10.03        2.04
    44:00        0.00       10.03       10.03        2.04
    46:00        0.00       10.03       10.03        2.04
    48:00        0.00       10.03       10.03        2.04
  
  <<< Node Source >>>
  
  Time            AS3         AS5       AStot       NH2CL
  hr:min         UG/L        UG/L        UG/L        MG/L
  -------  ----------  ----------  ----------  ----------
     0:00       10.00        0.00        0.00        2.50
     2:00       10.00        0.00        0.00        2.50
     4:00       10.00        0.00        0.00        2.50
     6:00       10.00        0.00        0.00        2.50
     8:00       10.00        0.00        0.00        2.50
    10:00       10.00        0.00        0.00        2.50
    12:00       10.00        0.00        0.00        2.50
    14:00       10.00        0.00        0.00        2.50
    16:00       10.00        0.00        0.00        2.50
    18:00       10.00        0.00        0.00        2.50
    20:00       10.00        0.00        0.00        2.50
    22:00       10.00        0.00        0.00        2.50
    24:00       10.00        0.00        0.00        2.50
    26:00       10.00        0.00        0.00        2.50
    28:00       10.00        0.00        0.00        2.50
    30:00       10.00        0.00        0.00        2.50
    32:00       10.00        0.00        0.00        2.50
    34:00       10.00        0.00        0.00        2.50
    36:00       10.00        0.00        0.00        2.50
    38:00       10.00        0.00        0.00        2.50
    40:00       10.00        0.00        0.00        2.50
    42:00       10.00        0.00        0.00        2.50
    44:00       10.00        0.00        0.00        2.50
    46:00       10.00        0.00        0.00        2.50
    48:00       10.00        0.00        0.00        2.50
  
  <<< Link 1 >>>
  
  Time            AS3         AS5       AStot        AS5s       NH2CL
  hr:min         UG/L        UG/L        UG/L       UG/M2        MG/L
  -------  ----------  ----------  ----------  ----------  ----------
     0:00        0.00        0.00        0.00        0.00        0.00
     2:00        0.53        7.92        7.97       41.15        2.22
     4:00        0.53        9.50        9.54       49.02        2.27
     6:00        0.53        9.50        9.54       49.02        2.27
     8:00        0.53        9.50        9.54       49.02        2.27
    10:00        0.53        9.50        9.54       49.02        2.27
    12:00        0.53        9.50        9.54       49.02        2.27
    14:00        0.53        9.50        9.54       49.02        2.27
    16:00        0.53        9.50        9.54       49.02        2.27
    18:00        0.53        9.50        9.54       49.02        2.27
    20:00        0.53        9.50        9.54       49.02        2.27
    22:00        0.53        9.50        9.54       49.02        2.27
    24:00        0.53        9.50        9.54       49.02        2.27
    26:00        0.53        9.50        9.54       49.02        2.27
    28:00        0.53        9.50        9.54       49.02        2.27
    30:00        0.53        9.50        9.54       49.02        2.27
    32:00        0.53        9.50        9.54       49.02        2.27
    34:00        0.53        9.50        9.54       49.02        2.27
    36:00        0.53        9.50        9.54       49.02        2.27
    38:00        0.53        9.50        9.54       49.02        2.27
    40:00        0.53        9.50        9.54       49.02        2.27
    42:00        0.53        9.50        9.54       49.02        2.27
    44:00        0.53        9.50        9.54       49.02        2.27
    46:00        0.53        9.50        9.54       49.02        2.27
    48:00        0.53        9.50        9.54       49.02        2.27
  
  <<< Link 2 >>>
  
  Time            AS3         AS5       AStot        AS5s       NH2CL
  hr:min         UG/L        UG/L        UG/L       UG/M2        MG/L
  -------  ----------  ----------  ----------  ----------  ----------
     0:00        0.00        0.00        0.00        0.00        0.00
     2:00        0.00        0.00        0.00        0.00        0.00
     4:00        0.00        4.06        4.06       19.74        1.04
     6:00        0.00        8.95        8.95       43.64        1.73
     8:00        0.00       10.03       10.03       49.02        1.73
    10:00        0.00       10.03       10.03       49.02        1.73
    12:00        0.00       10.03       10.03       49.02        1.73
    14:00        0.00       10.03       10.03       49.02        1.73
    16:00        0.00       10.03       10.03       49.02        1.73
    18:00        0.00       10.03       10.03       49.02        1.73
    20:00        0.00       10.03       10.03       49.02        1.73
    22:00        0.00       10.03       10.03       49.02        1.73
    24:00        0.00       10.03       10.03       49.02        1.73
    26:00        0.00       10.03       10.03       49.02        1.73
    28:00        0.00       10.03       10.03       49.02        1.73
    30:00        0.00       10.03       10.03       49.02        1.73
    32:00        0.00       10.03       10.03       49.02        1.73
    34:00        0.00       10.03       10.03       49.02        1.73
    36:00        0.00       10.03       10.03       49.02        1.73
    38:00        0.00       10.03       10.03       49.02        1.73
    40:00        0.00       10.03       10.03       49.02        1.73
    42:00        0.00       10.03       10.03       49.02        1.73
    44:00        0.00       10.03       10.03       49.02        1.73
    46:00        0.00       10.03       10.03       49.02        1.73
    48:00        0.00       10.03       10.03       49.02        1.73
  
  <<< Link 4 >>>
  
  Time            AS3         AS5       AStot        AS5s       NH2CL
  hr:min         UG/L        UG/L        UG/L       UG/M2        MG/L
  -------  ----------  ----------  ----------  ----------  ----------
     0:00        0.00        0.00        0.00        0.00        0.00
     2:00        0.00        0.00        0.00        0.00        0.00
     4:00        0.00        0.00        0.00        0.00        0.00
     6:00        0.00        0.00        0.00        0.00        0.03
     8:00        0.00        0.51        0.51        2.47        0.12
    10:00        0.00        1.15        1.15        5.61        0.20
    12:00        0.00        1.79        1.79        8.75        0.26
    14:00        0.00        2.44        2.44       11.90        0.31
    16:00        0.00        3.08        3.08       15.04        0.36
    18:00        0.00        3.72        3.72       18.19        0.39
    20:00        0.00        4.37        4.37       21.33        0.42
    22:00        0.00        5.01        5.01       24.48        0.44
    24:00        0.00        5.66        5.66       27.62        0.46
    26:00        0.00        6.30        6.30       30.76        0.48
    28:00        0.00        6.94        6.94       33.91        0.49
    30:00        0.00        7.59        7.59       37.05        0.50
    32:00        0.00        8.23        8.23       40.19        0.51
    34:00        0.00        8.87        8.87       43.33        0.51
    36:00        0.00        9.51        9.51       46.47        0.51
    38:00        0.00       10.03       10.03       49.02        0.51
    40:00        0.00       10.03       10.03       49.02        0.51
    42:00        0.00       10.03       10.03       49.02        0.51
    44:00        0.00       10.03       10.03       49.02        0.51
    46:00        0.00       10.03       10.03       49.02        0.51
    48:00        0.00       10.03       10.03       49.02        0.51
  
  <<< Link 3 >>>
  
  Time            AS3         AS5       AStot        AS5s       NH2CL
  hr:min         UG/L        UG/L        UG/L       UG/M2        MG/L
  -------  ----------  ----------  ----------  ----------  ----------
     0:00        0.00        0.00        0.00        0.00        0.00
     2:00        0.00        0.00        0.00        0.00        0.00
     4:00        0.00        2.78        2.78       13.55        0.68
     6:00        0.00        6.13        6.13       29.87        1.26
     8:00        0.00        9.48        9.48       46.29        1.59
    10:00        0.00       10.03       10.03       49.02        1.59
    12:00        0.00       10.03       10.03       49.02        1.59
    14:00        0.00       10.03       10.03       49.02        1.59
    16:00        0.00       10.03       10.03       49.02        1.59
    18:00        0.00       10.03       10.03       49.02        1.59
    20:00        0.00       10.03       10.03       49.02        1.59
    22:00        0.00       10.03       10.03       49.02        1.59
    24:00        0.00       10.03       10.03       49.02        1.59
    26:00        0.00       10.03       10.03       49.02        1.59
    28:00        0.00       10.03       10.03       49.02        1.59
    30:00        0.00       10.03       10.03       49.02        1.59
    32:00        0.00       10.03       10.03       49.02        1.59
    34:00        0.00       10.03       10.03       49.02        1.59
    36:00        0.00       10.03       10.03       49.02        1.59
    38:00        0.00       10.03       10.03       49.02        1.59
    40:00        0.00       10.03       10.03       49.02        1.59
    42:00        0.00       10.03       10.03       49.02        1.59
    44:00        0.00       10.03       10.03       49.02        1.59
    46:00        0.00       10.03       10.03       49.02        1.59
    48:00        0.00       10.03       10.03       49.02        1.59
  
  <<< Link 5 >>>
  
  Time            AS3         AS5       AStot        AS5s       NH2CL
  hr:min         UG/L        UG/L        UG/L       UG/M2        MG/L
  -------  ----------  ----------  ----------  ----------  ----------
     0:00        0.00        0.00        0.00        0.00        0.00
     2:00        0.00        0.00        0.00        0.00        0.00
     4:00        0.00        0.00        0.00        0.00        0.00
     6:00        0.00        0.00        0.00        0.00        0.00
     8:00        0.00        0.00        0.00        0.00        0.05
    10:00        0.00        0.85        0.85        4.51        0.17
    12:00        0.00        1.86        1.86        9.88        0.27
    14:00        0.00        2.87        2.87       15.27        0.35
    16:00        0.00        3.87        3.87       20.64        0.42
    18:00        0.00        4.88        4.88       26.02        0.47
    20:00        0.00        5.89        5.89       31.39        0.52
    22:00        0.00        6.89        6.89       36.75        0.55
    24:00        0.00        7.90        7.90       42.12        0.56
    26:00        0.00        8.91        8.91       47.50        0.56
    28:00        0.00        9.17        9.17       48.93        0.56
    30:00        0.00        9.17        9.17       48.93        0.56
    32:00        0.00        9.17        9.17       48.93        0.56
    34:00        0.00        9.17        9.17       48.93        0.56
    36:00        0.00        9.17        9.17       48.93        0.57
    38:00        0.00        9.19        9.19       48.93        0.57
    40:00        0.00        9.30        9.30       48.95        0.57
    42:00        0.00        9.41        9.41       48.96        0.57
    44:00        0.00        9.52        9.52       48.97        0.57
    46:00        0.00        9.64        9.64       48.98        0.57
    48:00        0.00        9.75        9.75       48.99        0.57
  
  Analysis ended Thu Sep 19 12:11:55 2013
